*MANAGEMENT OPERATIONS DAILY OUTPUT FILE

*DSSAT Cropping System Model Ver. 4.8.0.027 -release  NOV 09, 2022 14:44:16

*RUN   1        : 85 IRRIGATED              CRGRO048 UFGA8501    1
 MODEL          : CRGRO048 - Soybean
 EXPERIMENT     : UFGA8501 SB COBB, IRR & NON-IRR, RKN (IRR & NON-IRR)
 DATA PATH      : C:\DSSAT48\Soybean\
 TREATMENT  1   : 85 IRRIGATED              CRGRO048
  

@YEAR DOY   DAS   DAP  IR#C  IRRC  TL#C  TLDD DLYR3   TLBD  NAPC  NICM  R#AC RESNC RESPC
 1985 171     1     0     0     0     0     0    30  1.423     0     0     1     8     2
 1985 172     2     1     1    13     0     0    30  1.420     0     0     1     8     2
 1985 173     3     2     1    13     0     0    30  1.420     0     0     1     8     2
 1985 174     4     3     1    13     0     0    30  1.420     0     0     1     8     2
 1985 175     5     4     2    23     0     0    30  1.420     0     0     1     8     2
 1985 176     6     5     2    23     0     0    30  1.420     0     0     1     8     2
 1985 177     7     6     2    23     0     0    30  1.421     0     0     1     8     2
 1985 178     8     7     2    23     0     0    30  1.421     0     0     1     8     2
 1985 179     9     8     2    23     0     0    30  1.421     0     0     1     8     2
 1985 180    10     9     2    23     0     0    30  1.421     0     0     1     8     2
 1985 181    11    10     2    23     0     0    30  1.421     0     0     1     8     2
 1985 182    12    11     2    23     0     0    30  1.421     0     0     1     8     2
 1985 183    13    12     2    23     0     0    30  1.421     0     0     1     8     2
 1985 184    14    13     2    23     0     0    30  1.421     0     0     1     8     2
 1985 185    15    14     2    23     0     0    30  1.421     0     0     1     8     2
 1985 186    16    15     2    23     0     0    30  1.421     0     0     1     8     2
 1985 187    17    16     2    23     0     0    30  1.421     0     0     1     8     2
 1985 188    18    17     2    23     0     0    30  1.421     0     0     1     8     2
 1985 189    19    18     2    23     0     0    30  1.421     0     0     1     8     2
 1985 190    20    19     2    23     0     0    30  1.421     0     0     1     8     2
 1985 191    21    20     3    36     0     0    30  1.421     0     0     1     8     2
 1985 192    22    21     3    36     0     0    30  1.421     0     0     1     8     2
 1985 193    23    22     3    36     0     0    30  1.421     0     0     1     8     2
 1985 194    24    23     3    36     0     0    30  1.421     0     0     1     8     2
 1985 195    25    24     3    36     0     0    30  1.421     0     0     1     8     2
 1985 196    26    25     3    36     0     0    30  1.421     0     0     1     8     2
 1985 197    27    26     3    36     0     0    30  1.422     0     0     1     8     2
 1985 198    28    27     3    36     0     0    30  1.422     0     0     1     8     2
 1985 199    29    28     4    46     0     0    30  1.422     0     0     1     8     2
 1985 200    30    29     4    46     0     0    30  1.422     0     0     1     8     2
 1985 201    31    30     4    46     0     0    30  1.422     0     0     1     8     2
 1985 202    32    31     4    46     0     0    30  1.422     0     0     1     8     2
 1985 203    33    32     4    46     0     0    30  1.422     0     0     1     8     2
 1985 204    34    33     4    46     0     0    30  1.422     0     0     1     8     2
 1985 205    35    34     5    56     0     0    30  1.422     0     0     1     8     2
 1985 206    36    35     5    56     0     0    30  1.422     0     0     1     8     2
 1985 207    37    36     5    56     0     0    30  1.422     0     0     1     8     2
 1985 208    38    37     5    56     0     0    30  1.422     0     0     1     8     2
 1985 209    39    38     6    71     0     0    30  1.422     0     0     1     8     2
 1985 210    40    39     6    71     0     0    30  1.422     0     0     1     8     2
 1985 211    41    40     6    71     0     0    30  1.422     0     0     1     8     2
 1985 212    42    41     6    71     0     0    30  1.422     0     0     1     8     2
 1985 213    43    42     6    71     0     0    30  1.422     0     0     1     8     2
 1985 214    44    43     6    71     0     0    30  1.422     0     0     1     8     2
 1985 215    45    44     6    71     0     0    30  1.422     0     0     1     8     2
 1985 216    46    45     6    71     0     0    30  1.422     0     0     1     8     2
 1985 217    47    46     6    71     0     0    30  1.422     0     0     1     8     2
 1985 218    48    47     6    71     0     0    30  1.422     0     0     1     8     2
 1985 219    49    48     6    71     0     0    30  1.422     0     0     1     8     2
 1985 220    50    49     6    71     0     0    30  1.422     0     0     1     8     2
 1985 221    51    50     6    71     0     0    30  1.422     0     0     1     8     2
 1985 222    52    51     6    71     0     0    30  1.422     0     0     1     8     2
 1985 223    53    52     6    71     0     0    30  1.422     0     0     1     8     2
 1985 224    54    53     6    71     0     0    30  1.422     0     0     1     8     2
 1985 225    55    54     6    71     0     0    30  1.422     0     0     1     8     2
 1985 226    56    55     6    71     0     0    30  1.422     0     0     1     8     2
 1985 227    57    56     6    71     0     0    30  1.422     0     0     1     8     2
 1985 228    58    57     6    71     0     0    30  1.422     0     0     1     8     2
 1985 229    59    58     6    71     0     0    30  1.422     0     0     1     8     2
 1985 230    60    59     6    71     0     0    30  1.422     0     0     1     8     2
 1985 231    61    60     6    71     0     0    30  1.422     0     0     1     8     2
 1985 232    62    61     6    71     0     0    30  1.422     0     0     1     8     2
 1985 233    63    62     6    71     0     0    30  1.422     0     0     1     8     2
 1985 234    64    63     6    71     0     0    30  1.422     0     0     1     8     2
 1985 235    65    64     6    71     0     0    30  1.422     0     0     1     8     2
 1985 236    66    65     6    71     0     0    30  1.422     0     0     1     8     2
 1985 237    67    66     6    71     0     0    30  1.422     0     0     1     8     2
 1985 238    68    67     6    71     0     0    30  1.422     0     0     1     8     2
 1985 239    69    68     6    71     0     0    30  1.422     0     0     1     8     2
 1985 240    70    69     6    71     0     0    30  1.422     0     0     1     8     2
 1985 241    71    70     6    71     0     0    30  1.422     0     0     1     8     2
 1985 242    72    71     6    71     0     0    30  1.422     0     0     1     8     2
 1985 243    73    72     6    71     0     0    30  1.422     0     0     1     8     2
 1985 244    74    73     6    71     0     0    30  1.422     0     0     1     8     2
 1985 245    75    74     6    71     0     0    30  1.422     0     0     1     8     2
 1985 246    76    75     6    71     0     0    30  1.422     0     0     1     8     2
 1985 247    77    76     6    71     0     0    30  1.422     0     0     1     8     2
 1985 248    78    77     6    71     0     0    30  1.422     0     0     1     8     2
 1985 249    79    78     6    71     0     0    30  1.422     0     0     1     8     2
 1985 250    80    79     6    71     0     0    30  1.422     0     0     1     8     2
 1985 251    81    80     6    71     0     0    30  1.422     0     0     1     8     2
 1985 252    82    81     6    71     0     0    30  1.422     0     0     1     8     2
 1985 253    83    82     7    86     0     0    30  1.422     0     0     1     8     2
 1985 254    84    83     7    86     0     0    30  1.422     0     0     1     8     2
 1985 255    85    84     7    86     0     0    30  1.422     0     0     1     8     2
 1985 256    86    85     7    86     0     0    30  1.422     0     0     1     8     2
 1985 257    87    86     7    86     0     0    30  1.422     0     0     1     8     2
 1985 258    88    87     7    86     0     0    30  1.422     0     0     1     8     2
 1985 259    89    88     7    86     0     0    30  1.422     0     0     1     8     2
 1985 260    90    89     7    86     0     0    30  1.422     0     0     1     8     2
 1985 261    91    90     7    86     0     0    30  1.423     0     0     1     8     2
 1985 262    92    91     8    94     0     0    30  1.423     0     0     1     8     2
 1985 263    93    92     9   102     0     0    30  1.423     0     0     1     8     2
 1985 264    94    93     9   102     0     0    30  1.423     0     0     1     8     2
 1985 265    95    94     9   102     0     0    30  1.423     0     0     1     8     2
 1985 266    96    95     9   102     0     0    30  1.423     0     0     1     8     2
 1985 267    97    96    10   117     0     0    30  1.423     0     0     1     8     2
 1985 268    98    97    10   117     0     0    30  1.423     0     0     1     8     2
 1985 269    99    98    10   117     0     0    30  1.423     0     0     1     8     2
 1985 270   100    99    11   132     0     0    30  1.423     0     0     1     8     2
 1985 271   101   100    11   132     0     0    30  1.423     0     0     1     8     2
 1985 272   102   101    11   132     0     0    30  1.423     0     0     1     8     2
 1985 273   103   102    12   145     0     0    30  1.423     0     0     1     8     2
 1985 274   104   103    12   145     0     0    30  1.423     0     0     1     8     2
 1985 275   105   104    12   145     0     0    30  1.423     0     0     1     8     2
 1985 276   106   105    12   145     0     0    30  1.423     0     0     1     8     2
 1985 277   107   106    13   164     0     0    30  1.423     0     0     1     8     2
 1985 278   108   107    13   164     0     0    30  1.423     0     0     1     8     2
 1985 279   109   108    13   164     0     0    30  1.423     0     0     1     8     2
 1985 280   110   109    13   164     0     0    30  1.423     0     0     1     8     2
 1985 281   111   110    13   164     0     0    30  1.423     0     0     1     8     2
 1985 282   112   111    13   164     0     0    30  1.423     0     0     1     8     2
 1985 283   113   112    13   164     0     0    30  1.423     0     0     1     8     2
 1985 284   114   113    13   164     0     0    30  1.423     0     0     1     8     2
 1985 285   115   114    13   164     0     0    30  1.423     0     0     1     8     2
 1985 286   116   115    13   164     0     0    30  1.423     0     0     1     8     2
 1985 287   117   116    14   179     0     0    30  1.423     0     0     1     8     2
 1985 288   118   117    14   179     0     0    30  1.423     0     0     1     8     2
 1985 289   119   118    14   179     0     0    30  1.423     0     0     1     8     2
 1985 290   120   119    14   179     0     0    30  1.423     0     0     1     8     2
 1985 291   121   120    14   179     0     0    30  1.423     0     0     1     8     2
 1985 292   122   121    15   198     0     0    30  1.423     0     0     1     8     2
 1985 293   123   122    15   198     0     0    30  1.423     0     0     1     8     2
 1985 294   124   123    15   198     0     0    30  1.423     0     0     1     8     2
 1985 295   125   124    15   198     0     0    30  1.423     0     0     1     8     2
 1985 296   126   125    15   198     0     0    30  1.423     0     0     1     8     2
 1985 297   127   126    15   198     0     0    30  1.423     0     0     1     8     2
 1985 298   128   127    16   217     0     0    30  1.423     0     0     1     8     2
 1985 299   129   128    16   217     0     0    30  1.423     0     0     1     8     2
 1985 300   130   129    16   217     0     0    30  1.423     0     0     1     8     2
 1985 301   131   130    16   217     0     0    30  1.423     0     0     1     8     2
 1985 302   132   131    16   217     0     0    30  1.423     0     0     1     8     2
 1985 303   133   132    16   217     0     0    30  1.423     0     0     1     8     2
