*MANAGEMENT OPERATIONS DAILY OUTPUT FILE

*DSSAT Cropping System Model Ver. 4.8.0.027 -release  NOV 08, 2022 16:40:16

*RUN   1        : Irrigated, 200 kg N/ha    MZCER048 FLSC8101    1
 MODEL          : MZCER048 - Maize
 EXPERIMENT     : FLSC8101 MZ N X IRRIG., S.C. (CERES MAIZE BK)
 DATA PATH      : C:\DSSAT48\Maize\
 TREATMENT  1   : Irrigated, 200 kg N/ha    MZCER048
  

@YEAR DOY   DAS   DAP  IR#C  IRRC  TL#C  TLDD DLYR3   TLBD  NAPC  NICM  R#AC RESNC RESPC
 1988 090     1     0     0     0     0     0    20  1.550     0     0     0     0     0
 1988 091     2     0     0     0     0     0    20  1.550     0     0     0     0     0
 1988 092     3     0     0     0     0     0    20  1.550     0     0     0     0     0
 1988 093     4     0     0     0     0     0    20  1.550     0     0     0     0     0
 1988 094     5     0     0     0     0     0    20  1.550     0     0     0     0     0
 1988 095     6     0     0     0     0     0    20  1.550     0     0     0     0     0
 1988 096     7     0     0     0     0     0    20  1.550     0     0     0     0     0
 1988 097     8     0     0     0     0     0    20  1.550     0     0     0     0     0
 1988 098     9     1     0     0     0     0    20  1.550     0     0     0     0     0
 1988 099    10     2     0     0     0     0    20  1.550     0     0     0     0     0
 1988 100    11     3     0     0     0     0    20  1.550     0     0     0     0     0
 1988 101    12     4     0     0     0     0    20  1.550     0     0     0     0     0
 1988 102    13     5     0     0     0     0    20  1.550     0     0     0     0     0
 1988 103    14     6     0     0     0     0    20  1.550     0     0     0     0     0
 1988 104    15     7     0     0     0     0    20  1.550     0     0     0     0     0
 1988 105    16     8     0     0     0     0    20  1.550     0     0     0     0     0
 1988 106    17     9     0     0     0     0    20  1.550     0     0     0     0     0
 1988 107    18    10     0     0     0     0    20  1.550     1    66     0     0     0
 1988 108    19    11     0     0     0     0    20  1.550     1    66     0     0     0
 1988 109    20    12     0     0     0     0    20  1.550     1    66     0     0     0
 1988 110    21    13     0     0     0     0    20  1.550     1    66     0     0     0
 1988 111    22    14     0     0     0     0    20  1.550     1    66     0     0     0
 1988 112    23    15     0     0     0     0    20  1.550     1    66     0     0     0
 1988 113    24    16     0     0     0     0    20  1.550     1    66     0     0     0
 1988 114    25    17     0     0     0     0    20  1.550     1    66     0     0     0
 1988 115    26    18     0     0     0     0    20  1.550     1    66     0     0     0
 1988 116    27    19     0     0     0     0    20  1.550     1    66     0     0     0
 1988 117    28    20     0     0     0     0    20  1.550     1    66     0     0     0
 1988 118    29    21     0     0     0     0    20  1.550     1    66     0     0     0
 1988 119    30    22     0     0     0     0    20  1.550     1    66     0     0     0
 1988 120    31    23     0     0     0     0    20  1.550     1    66     0     0     0
 1988 121    32    24     0     0     0     0    20  1.550     1    66     0     0     0
 1988 122    33    25     0     0     0     0    20  1.550     1    66     0     0     0
 1988 123    34    26     0     0     0     0    20  1.550     1    66     0     0     0
 1988 124    35    27     0     0     0     0    20  1.550     1    66     0     0     0
 1988 125    36    28     0     0     0     0    20  1.550     1    66     0     0     0
 1988 126    37    29     0     0     0     0    20  1.550     1    66     0     0     0
 1988 127    38    30     0     0     0     0    20  1.550     1    66     0     0     0
 1988 128    39    31     0     0     0     0    20  1.550     1    66     0     0     0
 1988 129    40    32     0     0     0     0    20  1.550     1    66     0     0     0
 1988 130    41    33     0     0     0     0    20  1.550     1    66     0     0     0
 1988 131    42    34     0     0     0     0    20  1.550     1    66     0     0     0
 1988 132    43    35     0     0     0     0    20  1.550     1    66     0     0     0
 1988 133    44    36     0     0     0     0    20  1.550     1    66     0     0     0
 1988 134    45    37     0     0     0     0    20  1.550     1    66     0     0     0
 1988 135    46    38     0     0     0     0    20  1.550     1    66     0     0     0
 1988 136    47    39     0     0     0     0    20  1.550     1    66     0     0     0
 1988 137    48    40     0     0     0     0    20  1.550     2   132     0     0     0
 1988 138    49    41     0     0     0     0    20  1.550     2   132     0     0     0
 1988 139    50    42     0     0     0     0    20  1.550     2   132     0     0     0
 1988 140    51    43     0     0     0     0    20  1.550     2   132     0     0     0
 1988 141    52    44     0     0     0     0    20  1.550     2   132     0     0     0
 1988 142    53    45     1    26     0     0    20  1.550     2   132     0     0     0
 1988 143    54    46     1    26     0     0    20  1.550     2   132     0     0     0
 1988 144    55    47     1    26     0     0    20  1.550     2   132     0     0     0
 1988 145    56    48     1    26     0     0    20  1.550     2   132     0     0     0
 1988 146    57    49     1    26     0     0    20  1.550     2   132     0     0     0
 1988 147    58    50     1    26     0     0    20  1.550     2   132     0     0     0
 1988 148    59    51     1    26     0     0    20  1.550     2   132     0     0     0
 1988 149    60    52     1    26     0     0    20  1.550     2   132     0     0     0
 1988 150    61    53     1    26     0     0    20  1.550     2   132     0     0     0
 1988 151    62    54     1    26     0     0    20  1.550     2   132     0     0     0
 1988 152    63    55     2    53     0     0    20  1.550     2   132     0     0     0
 1988 153    64    56     2    53     0     0    20  1.550     2   132     0     0     0
 1988 154    65    57     2    53     0     0    20  1.550     2   132     0     0     0
 1988 155    66    58     2    53     0     0    20  1.550     2   132     0     0     0
 1988 156    67    59     2    53     0     0    20  1.550     2   132     0     0     0
 1988 157    68    60     2    53     0     0    20  1.550     3   198     0     0     0
 1988 158    69    61     2    53     0     0    20  1.550     3   198     0     0     0
 1988 159    70    62     3    83     0     0    20  1.550     3   198     0     0     0
 1988 160    71    63     3    83     0     0    20  1.550     3   198     0     0     0
 1988 161    72    64     3    83     0     0    20  1.550     3   198     0     0     0
 1988 162    73    65     3    83     0     0    20  1.550     3   198     0     0     0
 1988 163    74    66     3    83     0     0    20  1.550     3   198     0     0     0
 1988 164    75    67     3    83     0     0    20  1.550     3   198     0     0     0
 1988 165    76    68     3    83     0     0    20  1.550     3   198     0     0     0
 1988 166    77    69     3    83     0     0    20  1.550     3   198     0     0     0
 1988 167    78    70     4   111     0     0    20  1.550     3   198     0     0     0
 1988 168    79    71     4   111     0     0    20  1.550     3   198     0     0     0
 1988 169    80    72     4   111     0     0    20  1.550     3   198     0     0     0
 1988 170    81    73     4   111     0     0    20  1.550     3   198     0     0     0
 1988 171    82    74     4   111     0     0    20  1.550     3   198     0     0     0
 1988 172    83    75     4   111     0     0    20  1.550     3   198     0     0     0
 1988 173    84    76     4   111     0     0    20  1.550     3   198     0     0     0
 1988 174    85    77     4   111     0     0    20  1.550     3   198     0     0     0
 1988 175    86    78     4   111     0     0    20  1.550     3   198     0     0     0
 1988 176    87    79     5   139     0     0    20  1.550     3   198     0     0     0
 1988 177    88    80     5   139     0     0    20  1.550     3   198     0     0     0
 1988 178    89    81     5   139     0     0    20  1.550     3   198     0     0     0
 1988 179    90    82     5   139     0     0    20  1.550     3   198     0     0     0
 1988 180    91    83     5   139     0     0    20  1.550     3   198     0     0     0
 1988 181    92    84     6   166     0     0    20  1.550     3   198     0     0     0
 1988 182    93    85     6   166     0     0    20  1.550     3   198     0     0     0
 1988 183    94    86     6   166     0     0    20  1.550     3   198     0     0     0
 1988 184    95    87     6   166     0     0    20  1.550     3   198     0     0     0
 1988 185    96    88     6   166     0     0    20  1.550     3   198     0     0     0
 1988 186    97    89     6   166     0     0    20  1.550     3   198     0     0     0
 1988 187    98    90     7   193     0     0    20  1.550     3   198     0     0     0
 1988 188    99    91     7   193     0     0    20  1.550     3   198     0     0     0
 1988 189   100    92     7   193     0     0    20  1.550     3   198     0     0     0
 1988 190   101    93     7   193     0     0    20  1.550     3   198     0     0     0
 1988 191   102    94     7   193     0     0    20  1.550     3   198     0     0     0
 1988 192   103    95     7   193     0     0    20  1.550     3   198     0     0     0
 1988 193   104    96     7   193     0     0    20  1.550     3   198     0     0     0
 1988 194   105    97     7   193     0     0    20  1.550     3   198     0     0     0
 1988 195   106    98     8   220     0     0    20  1.550     3   198     0     0     0
 1988 196   107    99     8   220     0     0    20  1.550     3   198     0     0     0
 1988 197   108   100     8   220     0     0    20  1.550     3   198     0     0     0
 1988 198   109   101     8   220     0     0    20  1.550     3   198     0     0     0
 1988 199   110   102     8   220     0     0    20  1.550     3   198     0     0     0
 1988 200   111   103     8   220     0     0    20  1.550     3   198     0     0     0
 1988 201   112   104     8   220     0     0    20  1.550     3   198     0     0     0
 1988 202   113   105     8   220     0     0    20  1.550     3   198     0     0     0
 1988 203   114   106     8   220     0     0    20  1.550     3   198     0     0     0
 1988 204   115   107     8   220     0     0    20  1.550     3   198     0     0     0
 1988 205   116   108     8   220     0     0    20  1.550     3   198     0     0     0
 1988 206   117   109     8   220     0     0    20  1.550     3   198     0     0     0
 1988 207   118   110     8   220     0     0    20  1.550     3   198     0     0     0
 1988 208   119   111     8   220     0     0    20  1.550     3   198     0     0     0
 1988 209   120   112     9   248     0     0    20  1.550     3   198     0     0     0
 1988 210   121   113     9   248     0     0    20  1.550     3   198     0     0     0
 1988 211   122   114     9   248     0     0    20  1.550     3   198     0     0     0
 1988 212   123   115     9   248     0     0    20  1.550     3   198     0     0     0
 1988 213   124   116     9   248     0     0    20  1.550     3   198     0     0     0
 1988 214   125   117    10   275     0     0    20  1.550     3   198     0     0     0
 1988 215   126   118    10   275     0     0    20  1.550     3   198     0     0     0
 1988 216   127   119    10   275     0     0    20  1.550     3   198     0     0     0
 1988 217   128   120    10   275     0     0    20  1.550     3   198     0     0     0
 1988 218   129   121    10   275     0     0    20  1.550     3   198     0     0     0
 1988 219   130   122    11   301     0     0    20  1.550     3   198     0     0     0
 1988 220   131   123    11   301     0     0    20  1.550     3   198     0     0     0
 1988 221   132   124    11   301     0     0    20  1.550     3   198     0     0     0
 1988 222   133   125    11   301     0     0    20  1.550     3   198     0     0     0
 1988 223   134   126    11   301     0     0    20  1.550     3   198     0     0     0
 1988 224   135   127    11   301     0     0    20  1.550     3   198     0     0     0
 1988 225   136   128    11   301     0     0    20  1.550     3   198     0     0     0
 1988 226   137   129    12   329     0     0    20  1.550     3   198     0     0     0
 1988 227   138   130    12   329     0     0    20  1.550     3   198     0     0     0
 1988 228   139   131    12   329     0     0    20  1.550     3   198     0     0     0
 1988 229   140   132    12   329     0     0    20  1.550     3   198     0     0     0
